LTspice 24.1.7 for Windows
Circuit: Z:\home\agam\Github\misc\analog\q2\q2_a.net
Start Time: Tue Feb 10 17:02:39 2026
Ignoring BSIM parameter XL
Ignoring BSIM parameter XW
solver = Normal
Maximum thread count: 16
tnom = 27
temp = 27
method = trap
Warning: Pd = 0 is less than W.
Warning: Ps = 0 is less than W.
.step 
Total elapsed time: 0.315 seconds.

Files loaded:
Z:\home\agam\Github\misc\analog\q2\q2_a.net
C:\users\agam\AppData\Local\LTspice\lib\cmp\standard.mos
Z:\home\agam\Github\misc\analog\q2\tsmc018.lib

