LTspice 24.1.7 for Windows
Circuit: Z:\home\agam\Github\misc\analog\assignment3\q4\q4.net
Start Time: Thu Mar 26 16:50:46 2026
solver = Normal
Maximum thread count: 16
tnom = 27
temp = 27
method = trap
Per .tran options, skipping operating point for transient analysis.
Total elapsed time: 8.435 seconds.

Files loaded:
Z:\home\agam\Github\misc\analog\assignment3\q4\q4.net
C:\users\agam\AppData\Local\LTspice\lib\cmp\standard.dio
C:\users\agam\AppData\Local\LTspice\lib\sub\LT1363.sub

