LTspice 24.1.7 for Windows
Circuit: Z:\home\agam\Github\EE2301\sims\sim4\current_mirror.net
Start Time: Wed Oct  1 15:22:38 2025
solver = Normal
Maximum thread count: 16
tnom = 27
temp = 27
method = trap
Direct Newton iteration for .op point succeeded.
Total elapsed time: 0.054 seconds.

Files loaded:
Z:\home\agam\Github\EE2301\sims\sim4\current_mirror.net
C:\users\agam\AppData\Local\LTspice\lib\cmp\standard.mos

