LTspice 24.1.7 for Windows
Circuit: Z:\home\agam\Github\EE2301\sims\sim4\diffamp_diff.net
Start Time: Wed Oct  1 18:19:21 2025
solver = Normal
Maximum thread count: 16
tnom = 27
temp = 27
method = trap
Instance "M1": Length shorter than recommended for a level 1 MOSFET.
Instance "M1": Width narrower than recommended for a level 1 MOSFET.
Instance "M2": Length shorter than recommended for a level 1 MOSFET.
Instance "M2": Width narrower than recommended for a level 1 MOSFET.
.step 
Total elapsed time: 0.321 seconds.

Files loaded:
Z:\home\agam\Github\EE2301\sims\sim4\diffamp_diff.net
C:\users\agam\AppData\Local\LTspice\lib\cmp\standard.mos

