LTspice 24.1.7 for Windows
Circuit: Z:\home\agam\Github\EE2301\sims\sim4\diffamp_res.net
Start Time: Tue Oct 14 23:52:42 2025
solver = Normal
Maximum thread count: 16
tnom = 27
temp = 27
method = trap
Z:\home\agam\Github\EE2301\sims\sim4\diffamp_res.net(7): Limiting fall time to 1.

VDIFF_1 N003 0 PULSE(0 200u 1m 10m 0 10s) AC 200u
^^^^^^^^^^^^^^^^^^^^^^^^^^^^^^^^^^^^^^^^^^^^^^^^^
Instance "M1": Length shorter than recommended for a level 1 MOSFET.
Instance "M2": Length shorter than recommended for a level 1 MOSFET.
Instance "M3": Length shorter than recommended for a level 1 MOSFET.
Instance "M4": Length shorter than recommended for a level 1 MOSFET.
.step 
Total elapsed time: 2.663 seconds.

Files loaded:
Z:\home\agam\Github\EE2301\sims\sim4\diffamp_res.net
C:\users\agam\AppData\Local\LTspice\lib\cmp\standard.mos

