LTspice 24.1.7 for Windows
Circuit: Z:\home\agam\Github\EE2301\sims\sim1\bjt_npn.net
Start Time: Fri Aug  8 19:48:27 2025
solver = Normal
Maximum thread count: 16
tnom = 27
temp = 27
method = trap
.OP point found by inspection.
.step VCE=0 
.step VCE=0.5 
.step VCE=1 
.step VCE=1.5 
.step VCE=2 
.step VCE=2.5 
.step VCE=3 
.step VCE=3.5 
.step VCE=4 
.step VCE=4.5 
.step VCE=5 
Total elapsed time: 0.454 seconds.

Files loaded:
Z:\home\agam\Github\EE2301\sims\sim1\bjt_npn.net
C:\users\agam\AppData\Local\LTspice\lib\cmp\standard.bjt

