LTspice 24.1.7 for Windows
Circuit: Z:\home\agam\Github\EE2301\sims\sim1\diode.net
Start Time: Sun Aug 10 19:22:34 2025
solver = Normal
Maximum thread count: 16
tnom = 27
temp = 27
method = trap
.OP point found by inspection.
.step 
Total elapsed time: 0.155 seconds.

Files loaded:
Z:\home\agam\Github\EE2301\sims\sim1\diode.net
C:\users\agam\AppData\Local\LTspice\lib\cmp\standard.dio

