LTspice 24.1.7 for Windows
Circuit: Z:\home\agam\Github\EE2301\sims\sim1\mosfet.net
Start Time: Mon Aug 11 14:43:22 2025
solver = Normal
Maximum thread count: 16
tnom = 27
temp = 27
method = trap
.step VGS=1.2 
.step VGS=1.25 
.step VGS=1.3 
.step VGS=1.35 
.step VGS=1.4 
.step VGS=1.45 
.step VGS=1.5 
.step VGS=1.55 
.step VGS=1.6 
.step VGS=1.65 
.step VGS=1.7 
Total elapsed time: 0.281 seconds.

Files loaded:
Z:\home\agam\Github\EE2301\sims\sim1\mosfet.net
C:\users\agam\AppData\Local\LTspice\lib\cmp\standard.mos

