LTspice 24.1.7 for Windows
Circuit: Z:\home\agam\Github\misc\analog\assignment3\q2\q2.net
Start Time: Thu Mar 26 14:17:59 2026
solver = Normal
Maximum thread count: 16
tnom = 27
temp = 27
method = trap
Per .tran options, skipping operating point for transient analysis.
Total elapsed time: 0.461 seconds.

Files loaded:
Z:\home\agam\Github\misc\analog\assignment3\q2\q2.net
C:\users\agam\AppData\Local\LTspice\lib\sub\LT1363.sub

