LTspice 24.1.7 for Windows
Circuit: Z:\home\agam\Github\misc\analog\assignment5\q1\q1_new.net
Start Time: Thu Apr  9 15:15:00 2026
Ignoring BSIM parameter XL
Ignoring BSIM parameter XW
solver = Normal
Maximum thread count: 16
tnom = 27
temp = 27
method = trap
Z:\home\agam\Github\misc\analog\assignment5\q1\q1_new.net(11): WARNING: Specified period is not longer than the sum of Trise, Tfall, and Ton. Increasing period to 0.000100002.

V1 N002 0 PULSE(0 5 0.2ms 1ns 1ns 0.1m 0 1)
^^^^^^^^^^^^^^^^^^^^^^^^^^^^^^^^^^^^^^^^^^^
WARNING: Node n003 is floating.
WARNING: Node n004 is floating.

Warning: Pd = 0 is less than W.
Warning: Ps = 0 is less than W.
Direct Newton iteration failed to find .op point.  (Use ".option noopiter" to skip.)
Starting Gmin stepping
Gmin = 10
Gmin = 1.07374
Gmin = 0.115292
Gmin = 0.0123794
Gmin = 0.00132923
Gmin = 0.000142725
Gmin = 1.5325e-05
Gmin = 1.6455e-06
vernier = 0.5
vernier = 0.666667
Gmin = 5.00922e-07
vernier = 0.888888
Gmin = 8.49738e-08
vernier = 1
Gmin = 9.33136e-09
Gmin = 1.00195e-09
Gmin = 1.07583e-10
Gmin = 1.15517e-11
Gmin = 1.24035e-12
Gmin = 1.33182e-13
Gmin = 0
Gmin stepping succeeded in finding the operating point.

Total elapsed time: 0.144 seconds.

Files loaded:
Z:\home\agam\Github\misc\analog\assignment5\q1\q1_new.net
C:\users\agam\AppData\Local\LTspice\lib\cmp\standard.mos
Z:\home\agam\Github\misc\analog\assignment5\q1\tsmc018.lib
C:\users\agam\AppData\Local\LTspice\lib\sub\LT1363.sub

