LTspice 24.1.7 for Windows
Circuit: Z:\home\agam\Github\misc\analog\assignment2\q6\q6.net
Start Time: Thu Mar 19 22:03:05 2026
solver = Normal
Maximum thread count: 16
tnom = 27
temp = 27
method = trap
Direct Newton iteration for .op point succeeded.
Total elapsed time: 0.053 seconds.

Files loaded:
Z:\home\agam\Github\misc\analog\assignment2\q6\q6.net
C:\users\agam\AppData\Local\LTspice\lib\sub\ADI.lib

