LTspice 24.1.7 for Windows
Circuit: Z:\home\agam\Github\misc\analog\assignment5\q2\Draft1.net
Start Time: Mon Apr 20 16:48:33 2026
solver = Normal
Maximum thread count: 16
tnom = 27
temp = 27
method = trap
Direct Newton iteration for .op point succeeded.
Total elapsed time: 0.095 seconds.

Files loaded:
Z:\home\agam\Github\misc\analog\assignment5\q2\Draft1.net
C:\users\agam\AppData\Local\LTspice\lib\sub\LT1363.sub

