LTspice 24.1.7 for Windows
Circuit: Z:\home\agam\Github\EE2301\sims\sim2\bjtro.net
Start Time: Wed Aug 20 15:29:55 2025
solver = Normal
Maximum thread count: 16
tnom = 27
temp = 27
method = trap
.step 
Total elapsed time: 0.091 seconds.

Files loaded:
Z:\home\agam\Github\EE2301\sims\sim2\bjtro.net
C:\users\agam\AppData\Local\LTspice\lib\cmp\standard.bjt

