LTspice 24.1.7 for Windows
Circuit: Z:\home\agam\Github\EE2301\sims\sim2\diode2.net
Start Time: Tue Aug 19 16:20:45 2025
solver = Normal
Maximum thread count: 16
tnom = 27
temp = 27
method = trap
.OP point found by inspection.
.step 
Total elapsed time: 0.078 seconds.

Files loaded:
Z:\home\agam\Github\EE2301\sims\sim2\diode2.net
C:\users\agam\AppData\Local\LTspice\lib\cmp\standard.dio

