LTspice 24.1.7 for Windows
Circuit: Z:\home\agam\Github\EE2301\sims\sim2\Draft11.net
Start Time: Mon Sep  1 01:20:39 2025
solver = Normal
Maximum thread count: 16
tnom = 27
temp = 27
method = trap
Direct Newton iteration for .op point succeeded.
Total elapsed time: 0.053 seconds.

Files loaded:
Z:\home\agam\Github\EE2301\sims\sim2\Draft11.net
C:\users\agam\AppData\Local\LTspice\lib\cmp\standard.bjt

