LTspice 24.1.7 for Windows
Circuit: Z:\home\agam\Github\EE2301\sims\sim2\Draft7.net
Start Time: Sun Aug 31 19:17:43 2025
solver = Normal
Maximum thread count: 16
tnom = 27
temp = 27
method = trap
Direct Newton iteration for .op point succeeded.
Total elapsed time: 0.078 seconds.

Files loaded:
Z:\home\agam\Github\EE2301\sims\sim2\Draft7.net
C:\users\agam\AppData\Local\LTspice\lib\cmp\standard.mos

