LTspice 24.1.7 for Windows
Circuit: Z:\home\agam\Github\misc\analog\assignment3\q5\q5.net
Start Time: Thu Mar 26 21:26:59 2026
solver = Normal
Maximum thread count: 16
tnom = 27
temp = 27
method = trap
Direct Newton iteration for .op point succeeded.
Total elapsed time: 0.081 seconds.

Files loaded:
Z:\home\agam\Github\misc\analog\assignment3\q5\q5.net
C:\users\agam\AppData\Local\LTspice\lib\sub\LT1363.sub

