LTspice 24.1.7 for Windows
Circuit: Z:\home\agam\Github\EE2301\sims\sim3.b\mos_cg_vds.net
Start Time: Mon Sep 15 21:42:07 2025
solver = Normal
Maximum thread count: 16
tnom = 27
temp = 27
method = trap
Instance "u1:M5": Length shorter than recommended for a level 2 MOSFET.
Instance "u1:M6": Length shorter than recommended for a level 2 MOSFET.
Direct Newton iteration failed to find .op point.  (Use ".option noopiter" to skip.)
Starting Gmin stepping
Gmin = 10
Gmin = 1.07374
Gmin = 0.115292
Gmin = 0.0123794
Gmin = 0.00132923
Gmin = 0.000142725
Gmin = 1.5325e-05
Gmin = 1.6455e-06
Gmin = 1.76685e-07
Gmin = 1.89714e-08
Gmin = 2.03704e-09
Gmin = 2.18725e-10
Gmin = 2.34854e-11
Gmin = 2.52173e-12
Gmin = 2.70769e-13
Gmin = 0
Gmin stepping succeeded in finding the operating point.

.step 
Total elapsed time: 0.303 seconds.

Files loaded:
Z:\home\agam\Github\EE2301\sims\sim3.b\mos_cg_vds.net
C:\users\agam\AppData\Local\LTspice\lib\cmp\standard.mos
C:\users\agam\AppData\Local\LTspice\lib\sub\ADI.lib

