LTspice 24.1.7 for Windows
Circuit: Z:\home\agam\Github\EE2301\sims\sim3.b\mos_cg_vgs.net
Start Time: Fri Sep 26 18:46:57 2025
solver = Normal
Maximum thread count: 16
tnom = 27
temp = 27
method = trap
Direct Newton iteration for .op point succeeded.
Total elapsed time: 0.181 seconds.

Files loaded:
Z:\home\agam\Github\EE2301\sims\sim3.b\mos_cg_vgs.net
C:\users\agam\AppData\Local\LTspice\lib\cmp\standard.mos

