LTspice 24.1.7 for Windows
Circuit: Z:\home\agam\Github\EE2301\sims\sim3.b\current\mos_cg_vgs.net
Start Time: Mon Sep 15 23:53:44 2025
solver = Normal
Maximum thread count: 16
tnom = 27
temp = 27
method = trap
Direct Newton iteration for .op point succeeded.
Total elapsed time: 0.206 seconds.

Files loaded:
Z:\home\agam\Github\EE2301\sims\sim3.b\current\mos_cg_vgs.net
C:\users\agam\AppData\Local\LTspice\lib\cmp\standard.mos

