LTspice 24.1.7 for Windows
Circuit: Z:\home\agam\Github\EE2301\sims\sim3\bjt_cc.net
Start Time: Mon Sep  1 22:53:49 2025
solver = Normal
Maximum thread count: 16
tnom = 27
temp = 27
method = trap
Direct Newton iteration for .op point succeeded.
Total elapsed time: 0.057 seconds.

Files loaded:
Z:\home\agam\Github\EE2301\sims\sim3\bjt_cc.net
C:\users\agam\AppData\Local\LTspice\lib\cmp\standard.bjt

