LTspice 24.1.7 for Windows
Circuit: Z:\home\agam\Github\EE2301\sims\sim3\bjt_ce.net
Start Time: Tue Sep  2 20:48:06 2025
solver = Normal
Maximum thread count: 16
tnom = 27
temp = 27
method = trap
Direct Newton iteration for .op point succeeded.
Total elapsed time: 0.138 seconds.

Files loaded:
Z:\home\agam\Github\EE2301\sims\sim3\bjt_ce.net
C:\users\agam\AppData\Local\LTspice\lib\cmp\standard.bjt

