LTspice 24.1.7 for Windows
Circuit: Z:\home\agam\Github\EE2301\sims\sim3\mosfet_cd_ro.net
Start Time: Tue Sep  2 14:46:41 2025
solver = Normal
Maximum thread count: 16
tnom = 27
temp = 27
method = trap
Direct Newton iteration for .op point succeeded.
Total elapsed time: 0.091 seconds.

Files loaded:
Z:\home\agam\Github\EE2301\sims\sim3\mosfet_cd_ro.net
C:\users\agam\AppData\Local\LTspice\lib\cmp\standard.mos

